<?xml version="1.0" encoding="ISO-8859-1"?>
<febio_spec version="4.0">
	<Module type="solid"/>
	<Control>
		<analysis>STATIC</analysis>
		<time_steps>10</time_steps>
		<step_size>0.1</step_size>
		<plot_zero_state>0</plot_zero_state>
		<plot_range>0,-1</plot_range>
		<plot_level>PLOT_MAJOR_ITRS</plot_level>
		<output_level>OUTPUT_MAJOR_ITRS</output_level>
		<plot_stride>1</plot_stride>
		<output_stride>1</output_stride>
		<adaptor_re_solve>1</adaptor_re_solve>
		<time_stepper type="default">
			<max_retries>5</max_retries>
			<opt_iter>11</opt_iter>
			<dtmin>0</dtmin>
			<dtmax>0.1</dtmax>
			<aggressiveness>0</aggressiveness>
			<cutback>0.5</cutback>
			<dtforce>0</dtforce>
		</time_stepper>
		<solver type="solid">
			<symmetric_stiffness>preferred</symmetric_stiffness>
			<equation_scheme>staggered</equation_scheme>
			<equation_order>default</equation_order>
			<optimize_bw>0</optimize_bw>
			<lstol>0.9</lstol>
			<lsmin>0.01</lsmin>
			<lsiter>5</lsiter>
			<ls_check_jacobians>0</ls_check_jacobians>
			<max_refs>15</max_refs>
			<check_zero_diagonal>0</check_zero_diagonal>
			<zero_diagonal_tol>0</zero_diagonal_tol>
			<force_partition>0</force_partition>
			<reform_each_time_step>1</reform_each_time_step>
			<reform_augment>0</reform_augment>
			<diverge_reform>1</diverge_reform>
			<min_residual>1e-20</min_residual>
			<max_residual>0</max_residual>
			<dtol>0.001</dtol>
			<etol>0.01</etol>
			<rtol>0</rtol>
			<rhoi>-2</rhoi>
			<alpha>1</alpha>
			<beta>0.25</beta>
			<gamma>0.5</gamma>
			<logSolve>0</logSolve>
			<arc_length>0</arc_length>
			<arc_length_scale>0</arc_length_scale>
			<qn_method type="BFGS">
				<max_ups>10</max_ups>
				<max_buffer_size>0</max_buffer_size>
				<cycle_buffer>1</cycle_buffer>
				<cmax>100000</cmax>
			</qn_method>
		</solver>
	</Control>
	<Globals>
		<Constants>
			<T>0</T>
			<P>0</P>
			<R>8.31446</R>
			<Fc>96485.3</Fc>
		</Constants>
	</Globals>
	<Material>
		<material id="1" name="Material1" type="Mooney-Rivlin">
			<density>1</density>
			<k>100</k>
			<pressure_model>default</pressure_model>
			<c1>1</c1>
			<c2>0</c2>
		</material>
	</Material>
	<Mesh>
		<Nodes name="Object1">
			<node id="1">-2,-0.5,0</node>
			<node id="2">2,-0.5,0</node>
			<node id="3">2,0.5,0</node>
			<node id="4">-2,0.5,0</node>
			<node id="5">-2,-0.5,1</node>
			<node id="6">2,-0.5,1</node>
			<node id="7">2,0.5,1</node>
			<node id="8">-2,0.5,1</node>
			<node id="9">-1.8,-0.5,0</node>
			<node id="10">-1.6,-0.5,0</node>
			<node id="11">-1.4,-0.5,0</node>
			<node id="12">-1.2,-0.5,0</node>
			<node id="13">-1,-0.5,0</node>
			<node id="14">-0.8,-0.5,0</node>
			<node id="15">-0.6,-0.5,0</node>
			<node id="16">-0.4,-0.5,0</node>
			<node id="17">-0.2,-0.5,0</node>
			<node id="18">-1.11022302e-16,-0.5,0</node>
			<node id="19">0.2,-0.5,0</node>
			<node id="20">0.4,-0.5,0</node>
<!-- ... 736 like lines cut -->
		</Nodes>
		<Elements type="hex8" name="Part1">
			<elem id="1">1,9,358,112,54,117,453,288</elem>
			<elem id="2">9,10,359,358,117,118,454,453</elem>
			<elem id="3">10,11,360,359,118,119,455,454</elem>
			<elem id="4">11,12,361,360,119,120,456,455</elem>
			<elem id="5">12,13,362,361,120,121,457,456</elem>
			<elem id="6">13,14,363,362,121,122,458,457</elem>
			<elem id="7">14,15,364,363,122,123,459,458</elem>
			<elem id="8">15,16,365,364,123,124,460,459</elem>
			<elem id="9">16,17,366,365,124,125,461,460</elem>
			<elem id="10">17,18,367,366,125,126,462,461</elem>
			<elem id="11">18,19,368,367,126,127,463,462</elem>
			<elem id="12">19,20,369,368,127,128,464,463</elem>
			<elem id="13">20,21,370,369,128,129,465,464</elem>
			<elem id="14">21,22,371,370,129,130,466,465</elem>
			<elem id="15">22,23,372,371,130,131,467,466</elem>
			<elem id="16">23,24,373,372,131,132,468,467</elem>
			<elem id="17">24,25,374,373,132,133,469,468</elem>
			<elem id="18">25,26,375,374,133,134,470,469</elem>
			<elem id="19">26,27,376,375,134,135,471,470</elem>
			<elem id="20">27,2,55,376,135,28,193,471</elem>
<!-- ... 480 like lines cut -->
		</Elements>
		<Surface name="fixed left">
			<quad4 id="1">4,109,285,86</quad4>
			<quad4 id="2">109,110,286,285</quad4>
			<quad4 id="3">110,111,287,286</quad4>
			<quad4 id="4">111,112,288,287</quad4>
			<quad4 id="5">112,1,54,288</quad4>
			<quad4 id="6">86,285,289,87</quad4>
			<quad4 id="7">285,286,290,289</quad4>
			<quad4 id="8">286,287,291,290</quad4>
			<quad4 id="9">287,288,292,291</quad4>
			<quad4 id="10">288,54,53,292</quad4>
			<quad4 id="11">87,289,293,88</quad4>
			<quad4 id="12">289,290,294,293</quad4>
			<quad4 id="13">290,291,295,294</quad4>
			<quad4 id="14">291,292,296,295</quad4>
			<quad4 id="15">292,53,52,296</quad4>
			<quad4 id="16">88,293,297,89</quad4>
			<quad4 id="17">293,294,298,297</quad4>
			<quad4 id="18">294,295,299,298</quad4>
			<quad4 id="19">295,296,300,299</quad4>
			<quad4 id="20">296,52,51,300</quad4>
<!-- ... 5 like lines cut -->
		</Surface>
		<Surface name="fixed right">
			<quad4 id="1">2,55,193,28</quad4>
			<quad4 id="2">55,56,194,193</quad4>
			<quad4 id="3">56,57,195,194</quad4>
			<quad4 id="4">57,58,196,195</quad4>
			<quad4 id="5">58,3,59,196</quad4>
			<quad4 id="6">28,193,197,29</quad4>
			<quad4 id="7">193,194,198,197</quad4>
			<quad4 id="8">194,195,199,198</quad4>
			<quad4 id="9">195,196,200,199</quad4>
			<quad4 id="10">196,59,60,200</quad4>
			<quad4 id="11">29,197,201,30</quad4>
			<quad4 id="12">197,198,202,201</quad4>
			<quad4 id="13">198,199,203,202</quad4>
			<quad4 id="14">199,200,204,203</quad4>
			<quad4 id="15">200,60,61,204</quad4>
			<quad4 id="16">30,201,205,31</quad4>
			<quad4 id="17">201,202,206,205</quad4>
			<quad4 id="18">202,203,207,206</quad4>
			<quad4 id="19">203,204,208,207</quad4>
			<quad4 id="20">204,61,62,208</quad4>
<!-- ... 5 like lines cut -->
		</Surface>
		<Surface name="Prescribed">
			<quad4 id="1">2,55,193,28</quad4>
			<quad4 id="2">55,56,194,193</quad4>
			<quad4 id="3">56,57,195,194</quad4>
			<quad4 id="4">57,58,196,195</quad4>
			<quad4 id="5">58,3,59,196</quad4>
			<quad4 id="6">28,193,197,29</quad4>
			<quad4 id="7">193,194,198,197</quad4>
			<quad4 id="8">194,195,199,198</quad4>
			<quad4 id="9">195,196,200,199</quad4>
			<quad4 id="10">196,59,60,200</quad4>
			<quad4 id="11">29,197,201,30</quad4>
			<quad4 id="12">197,198,202,201</quad4>
			<quad4 id="13">198,199,203,202</quad4>
			<quad4 id="14">199,200,204,203</quad4>
			<quad4 id="15">200,60,61,204</quad4>
			<quad4 id="16">30,201,205,31</quad4>
			<quad4 id="17">201,202,206,205</quad4>
			<quad4 id="18">202,203,207,206</quad4>
			<quad4 id="19">203,204,208,207</quad4>
			<quad4 id="20">204,61,62,208</quad4>
<!-- ... 5 like lines cut -->
		</Surface>
	</Mesh>
	<MeshDomains>
		<SolidDomain name="Part1" mat="Material1"/>
	</MeshDomains>
	<Boundary>
		<bc name="fixed left" node_set="@surface:fixed left" type="zero displacement">
			<x_dof>1</x_dof>
			<y_dof>1</y_dof>
			<z_dof>1</z_dof>
		</bc>
		<bc name="fixed right" node_set="@surface:fixed right" type="zero displacement">
			<x_dof>0</x_dof>
			<y_dof>1</y_dof>
			<z_dof>1</z_dof>
		</bc>
		<bc name="Prescribed" node_set="@surface:Prescribed" type="prescribed displacement">
			<dof>x</dof>
			<value lc="1">1</value>
			<relative>0</relative>
		</bc>
	</Boundary>
	<LoadData>
		<load_controller id="1" name="LC1" type="loadcurve">
			<interpolate>LINEAR</interpolate>
			<extend>CONSTANT</extend>
			<points>
				<pt>0,0</pt>
				<pt>1,1</pt>
			</points>
		</load_controller>
	</LoadData>
	<Output>
		<plotfile type="febio">
			<var type="displacement"/>
			<var type="stress"/>
			<var type="relative volume"/>
		</plotfile>
	</Output>
</febio_spec>
